Version 4
SHEET 1 880 680
WIRE 16 64 0 64
WIRE 96 64 16 64
WIRE 256 64 176 64
WIRE 272 64 256 64
WIRE 16 112 16 64
WIRE 256 128 256 64
WIRE 16 240 16 192
WIRE 128 240 16 240
WIRE 256 240 256 192
WIRE 256 240 128 240
WIRE 128 256 128 240
FLAG 128 256 0
FLAG 272 64 Vout
IOPIN 272 64 Out
FLAG 0 64 Vin
IOPIN 0 64 In
SYMBOL diode 240 128 R0
SYMATTR InstName D1
SYMATTR Value RR1LAM6S
SYMBOL res 192 48 R90
WINDOW 0 0 56 VBottom 2
WINDOW 3 32 56 VTop 2
SYMATTR InstName R1
SYMATTR Value 10
SYMBOL voltage 16 96 R0
WINDOW 123 0 0 Left 0
WINDOW 39 0 0 Left 0
SYMATTR InstName V1
SYMATTR Value 1
TEXT -136 264 Left 2 !.dc V1 -1 10 0.1
TEXT -128 312 Left 2 !.temp 25 75 125 150
