Version 4
SHEET 1 880 680
WIRE -16 64 -32 64
WIRE 112 64 -16 64
WIRE 272 64 192 64
WIRE 384 64 272 64
WIRE 400 64 384 64
WIRE -16 128 -16 64
WIRE 272 144 272 64
WIRE 384 160 384 64
WIRE -16 256 -16 208
WIRE 144 256 -16 256
WIRE 272 256 272 224
WIRE 272 256 144 256
WIRE 384 256 384 224
WIRE 384 256 272 256
WIRE 144 288 144 256
FLAG 144 288 0
FLAG -32 64 Vin
IOPIN -32 64 In
FLAG 400 64 Vout
IOPIN 400 64 Out
SYMBOL res 208 48 R90
WINDOW 0 0 56 VBottom 2
WINDOW 3 32 56 VTop 2
SYMATTR InstName R1
SYMATTR Value 1k
SYMBOL res 256 128 R0
SYMATTR InstName R2
SYMATTR Value 1k
SYMBOL cap 368 160 R0
SYMATTR InstName C1
SYMATTR Value 2µ
SYMBOL voltage -16 112 R0
WINDOW 123 0 0 Left 0
WINDOW 39 0 0 Left 0
SYMATTR InstName V1
SYMATTR Value 20
TEXT -272 208 Left 2 !.tran 10m startup
