Version 4
SHEET 1 880 680
WIRE 32 64 -16 64
WIRE 128 64 32 64
WIRE 272 64 192 64
WIRE 304 64 272 64
WIRE 272 112 272 64
WIRE 32 128 32 64
WIRE 32 256 32 208
WIRE 160 256 32 256
WIRE 272 256 272 192
WIRE 272 256 160 256
WIRE 160 272 160 256
WIRE 0 0 0 0
FLAG 160 272 0
FLAG -16 64 Vin
IOPIN -16 64 In
FLAG 304 64 Vout
IOPIN 304 64 Out
SYMBOL voltage 32 112 R0
WINDOW 123 0 0 Left 0
WINDOW 39 0 0 Left 0
SYMATTR InstName V1
SYMATTR Value SINE(0 5 50)
SYMBOL diode 128 80 R270
WINDOW 0 32 32 VTop 2
WINDOW 3 0 32 VBottom 2
SYMATTR InstName D1
SYMATTR Value RFL60TZ6S
SYMBOL res 256 96 R0
SYMATTR InstName R1
SYMATTR Value 1k
TEXT -2 296 Left 2 !.tran 60m
