Version 4
SHEET 1 880 680
WIRE 80 80 -48 80
WIRE 240 80 160 80
WIRE 448 80 240 80
WIRE 512 80 448 80
WIRE -48 128 -48 80
WIRE 240 144 240 80
WIRE 448 144 448 80
WIRE -48 272 -48 208
WIRE 96 272 -48 272
WIRE 240 272 240 224
WIRE 240 272 96 272
WIRE 448 272 448 208
WIRE 448 272 240 272
WIRE 96 304 96 272
FLAG 96 304 0
FLAG 512 80 VOut
IOPIN 512 80 Out
SYMBOL voltage -48 112 R0
SYMATTR InstName V1
SYMATTR Value 20
SYMBOL res 176 64 R90
WINDOW 0 0 56 VBottom 2
WINDOW 3 32 56 VTop 2
SYMATTR InstName R1
SYMATTR Value 1k
SYMBOL res 224 128 R0
SYMATTR InstName R2
SYMATTR Value 1k
SYMBOL cap 432 144 R0
SYMATTR InstName C1
SYMATTR Value {C}
TEXT -168 296 Left 2 !.tran 60m startup
TEXT -168 344 Left 2 !.step param C list 1u 4u 10u
