Version 4
SHEET 1 880 680
WIRE 32 80 0 80
WIRE 144 80 32 80
WIRE 288 80 208 80
WIRE 368 80 288 80
WIRE 32 128 32 80
WIRE 288 128 288 80
WIRE 32 256 32 208
WIRE 160 256 32 256
WIRE 288 256 288 208
WIRE 288 256 160 256
WIRE 160 288 160 256
FLAG 160 288 0
FLAG 0 80 Vin
IOPIN 0 80 In
FLAG 368 80 Vout
IOPIN 368 80 Out
SYMBOL voltage 32 112 R0
WINDOW 3 34 81 Left 2
WINDOW 123 0 0 Left 0
WINDOW 39 0 0 Left 0
SYMATTR InstName V1
SYMATTR Value SINE(0 10 50)
SYMBOL diode 144 96 R270
WINDOW 0 32 32 VTop 2
WINDOW 3 46 132 VBottom 2
SYMATTR InstName D1
SYMATTR Value RR601BM4S
SYMBOL res 272 112 R0
SYMATTR InstName R1
SYMATTR Value 250
TEXT -96 288 Left 2 !.temp 25 75 150
TEXT -94 312 Left 2 !.tran 60m
