Version 4
SHEET 1 880 680
WIRE 144 32 64 32
WIRE 272 32 224 32
WIRE 64 64 64 32
WIRE 272 64 272 32
WIRE 64 160 64 144
WIRE 176 160 64 160
WIRE 272 160 272 128
WIRE 272 160 176 160
WIRE 176 176 176 160
FLAG 176 176 0
SYMBOL res 240 16 R90
WINDOW 0 0 56 VBottom 2
WINDOW 3 32 56 VTop 2
SYMATTR InstName R1
SYMATTR Value 1k
SYMBOL cap 256 64 R0
SYMATTR InstName C1
SYMATTR Value {C}
SYMBOL voltage 64 48 R0
WINDOW 3 24 72 Left 2
WINDOW 123 24 44 Left 2
WINDOW 39 0 0 Left 0
SYMATTR InstName V1
SYMATTR Value SINE(0 10 5k)
TEXT 16 176 Left 2 !.tran 2m
TEXT 16 216 Left 2 !.step param C list 100n 200n 400n
